Circuit: * C:\Projects\circuits_rf\ssb\emitter_follower.asc

Direct Newton iteration for .op point succeeded.

Date: Sat Mar 28 06:33:56 2026
Total elapsed time: 0.033 seconds.

tnom = 27
temp = 27
method = modified trap
totiter = 2238
traniter = 2235
tranpoints = 1011
accept = 677
rejected = 334
matrix size = 9
fillins = 0
solver = Normal
Matrix Compiler1: 590 bytes object code size  0.1/0.1/[0.1]
Matrix Compiler2: 715 bytes object code size  0.1/0.1/[0.1]

