Circuit: * C:\Projects\circuits_rf\ssb\emitter_follower_9MHz.asc

Direct Newton iteration for .op point succeeded.

Date: Sat Mar 28 07:03:04 2026
Total elapsed time: 0.045 seconds.

tnom = 27
temp = 27
method = modified trap
totiter = 2222
traniter = 2219
tranpoints = 1011
accept = 678
rejected = 333
matrix size = 9
fillins = 0
solver = Normal
Matrix Compiler1:      33 opcodes  0.1/[0.1]/0.1
Matrix Compiler2: off  [0.1]/0.1/0.1

