Circuit: * C:\Projects\circuits_rf\ssb\emitter_follower_mic_audio.asc

Direct Newton iteration for .op point succeeded.

Date: Sat Mar 28 12:05:32 2026
Total elapsed time: 0.026 seconds.

tnom = 27
temp = 27
method = modified trap
totiter = 840
traniter = 836
tranpoints = 415
accept = 334
rejected = 81
matrix size = 10
fillins = 0
solver = Normal
Matrix Compiler1:      38 opcodes  0.1/[0.1]/0.1
Matrix Compiler2: off  [0.1]/0.1/0.1

