Circuit: * C:\Projects\circuits_rf\jfets\Fourth_JFET_AM_no_divider.asc

WARNING: Node OUT is floating.

WARNING: Less than two connections to node OUT.  This node is used by C3.
Direct Newton iteration for .op point succeeded.

Date: Thu Jan 01 19:21:55 2026
Total elapsed time: 0.422 seconds.

tnom = 27
temp = 27
method = modified trap
totiter = 76896
traniter = 76891
tranpoints = 23880
accept = 15551
rejected = 8329
matrix size = 10
fillins = 0
solver = Normal
Matrix Compiler1: 346 bytes object code size  0.1/0.1/[0.1]
Matrix Compiler2: 760 bytes object code size  0.1/0.1/[0.1]

