Circuit: * C:\Projects\circuits_rf\jfets\jfet_with_variable_gate_voltage.asc

WARNING: Node VOUT is floating.

WARNING: Less than two connections to node VOUT.  This node is used by C1.
Direct Newton iteration for .op point succeeded.

Date: Thu Jan 01 17:31:21 2026
Total elapsed time: 0.197 seconds.

tnom = 27
temp = 27
method = modified trap
totiter = 21517
traniter = 21512
tranpoints = 7863
accept = 4820
rejected = 3043
matrix size = 9
fillins = 0
solver = Normal
Matrix Compiler1:      22 opcodes  0.1/[0.0]/0.1
Matrix Compiler2: off  [0.1]/0.1/0.1

