Circuit: * C:\Projects\circuits_rf\jfets\jfet_Id_Vds.asc

.OP point found by inspection.

Date: Thu Jan 01 10:33:30 2026
Total elapsed time: 0.034 seconds.

tnom = 27
temp = 27
method = modified trap
totiter = 584
traniter = 584
tranpoints = 292
accept = 290
rejected = 2
matrix size = 4
fillins = 0
solver = Normal
Matrix Compiler1: 118 bytes object code size  0.0/0.0/[0.0]
Matrix Compiler2: 242 bytes object code size  0.0/0.0/[0.0]

