Circuit: * C:\Projects\circuits_rf\jfets\Third_attempt_JFET_AM_circuit.asc

WARNING: Node OUT is floating.

WARNING: Less than two connections to node OUT.  This node is used by C3.
Direct Newton iteration for .op point succeeded.

Date: Sat Jan 10 09:50:42 2026
Total elapsed time: 7.354 seconds.

tnom = 27
temp = 27
method = modified trap
totiter = 2294274
traniter = 2294269
tranpoints = 899981
accept = 540034
rejected = 359947
matrix size = 12
fillins = 6
solver = Normal
Matrix Compiler1: 988 bytes object code size  0.2/0.1/[0.1]
Matrix Compiler2: off  [0.1]/0.1/0.1

