Circuit: * C:\Projects\circuits_rf\diode_ring_modulator\diode_ring_modulator_3.asc

.OP point found by inspection.

Date: Sun Feb 08 05:58:29 2026
Total elapsed time: 2.305 seconds.

tnom = 27
temp = 27
method = modified trap
totiter = 582931
traniter = 582931
tranpoints = 169992
accept = 116952
rejected = 53040
matrix size = 17
fillins = 16
solver = Normal
Matrix Compiler1: 2.15 KB object code size  0.7/0.2/[0.2]
Matrix Compiler2: 1.71 KB object code size  1.5/0.2/[0.2]

