Circuit: * C:\Projects\circuits_rf\diode_ring_modulator\diode_ring_modulator_2.asc

.OP point found by inspection.

Date: Sat Jan 24 07:48:44 2026
Total elapsed time: 1.413 seconds.

tnom = 27
temp = 27
method = modified trap
totiter = 336395
traniter = 336395
tranpoints = 125129
accept = 84788
rejected = 40341
matrix size = 17
fillins = 16
solver = Normal
Matrix Compiler1:     118 opcodes  0.3/[0.1]/0.2
Matrix Compiler2: 1.71 KB object code size  0.1/0.2/[0.1]

