Circuit: * C:\Projects\circuits_rf\diode_ring_modulator\diode_ring_modulator_1.asc

Direct Newton iteration for .op point succeeded.

Date: Sat Jan 10 15:32:59 2026
Total elapsed time: 5.302 seconds.

tnom = 27
temp = 27
method = modified trap
totiter = 1737974
traniter = 1737967
tranpoints = 698345
accept = 518341
rejected = 180004
matrix size = 18
fillins = 15
solver = Normal
Matrix Compiler1: 2.13 KB object code size  0.3/0.2/[0.1]
Matrix Compiler2: off  [0.1]/0.2/0.2

